% 2021-03-11 TobiKattmann
%
SOLVER= MULTIPHYSICS
%
% Set RESTART_SOL=YES for primal runs including the FD sweep
RESTART_SOL= NO
RESTART_ITER= 2
READ_BINARY_RESTART= YES
SOLUTION_FILENAME= solution
RESTART_FILENAME= solution
%
CONFIG_LIST = ( fluid.cfg, solid.cfg )
%
MARKER_ZONE_INTERFACE= ( cylinder_fluid, cylinder_solid )
MARKER_CHT_INTERFACE=  ( cylinder_fluid, cylinder_solid )
%
% ------------------------- UNSTEADY SIMULATION -------------------------------%
%
TIME_DOMAIN= YES
TIME_MARCHING= DUAL_TIME_STEPPING-2ND_ORDER
%
TIME_STEP= 500
%
MAX_TIME= 1e9
% For a primal restart change TIME_ITER=812 for the correct number of steps. 270 is for the adjoint run.
TIME_ITER= 270
% For the primal (and therefore FD sweep) OUTER_ITER=200 is suitable.
% For an accurate adjont run set OUTER_ITER=500. 100 is for the regression test.
OUTER_ITER= 100
%INNER_ITER= 1
%
% tells the adjoint where to start reading primal solutions.
UNST_ADJOINT_ITER= 812
%
ITER_AVERAGE_OBJ= 270
WINDOW_START_ITER= 542
%
% ------------------------- INPUT/OUTPUT FILE INFORMATION --------------------------%
%
MESH_FILENAME= MeshCHT_FFD.su2
MESH_OUT_FILENAME= defrom_MeshCHT_FFD.su2
%
SCREEN_OUTPUT= (TIME_ITER, OUTER_ITER, CUR_TIME, TIME_STEP \
  RMS_PRESSURE[0], RMS_ADJ_PRESSURE[0], \
  RMS_VELOCITY-X[0], RMS_ADJ_VELOCITY-X[0], \
  RMS_VELOCITY-Y, RMS_ADJ_VELOCITY-Y[0], \
  RMS_TEMPERATURE[0], RMS_ADJ_TEMPERATURE[0], \
  RMS_TEMPERATURE[1], RMS_ADJ_TEMPERATURE[1], \
  DRAG[0], AVG_TEMPERATURE[1], \
  SENS_TEMP[0], SENS_GEO[0], SENS_GEO[1] )
SCREEN_WRT_FREQ_OUTER= 50
%
HISTORY_OUTPUT= ( ITER, TIME_DOMAIN, BGS_RES[0], RMS_RES[0], BGS_RES[1], RMS_RES[1],\
 FLOW_COEFF[0], HEAT[0], AERO_COEFF[0], TAVG_AERO_COEFF[0], LINSOL[0],\
 HEAT[1], TAVG_HEAT[1], LINSOL[1])
%
OUTPUT_FILES= RESTART, PARAVIEW_MULTIBLOCK
OUTPUT_WRT_FREQ= 1
VOLUME_FILENAME= flow
WRT_PERFORMANCE= YES
%
SOLUTION_ADJ_FILENAME= solution_adj
RESTART_ADJ_FILENAME= solution_adj
VOLUME_ADJ_FILENAME= flow_adj
%
TABULAR_FORMAT= CSV
GRAD_OBJFUNC_FILENAME= of_grad.csv
OUTPUT_PRECISION=16
%
% -------------------- FREE-FORM DEFORMATION PARAMETERS -----------------------%
%
FFD_TOLERANCE= 1E-10
FFD_ITERATIONS= 500
%
% FFD box definition: 2D case (FFD_BoxTag, X1, Y1, 0.0, X2, Y2, 0.0, X3, Y3, 0.0, X4, Y4, 0.0,
%                              0.0, 0.0, 0.0, 0.0, 0.0, 0.0, 0.0, 0.0, 0.0, 0.0, 0.0, 0.0)
% Counterclockwise definition of FFD cornerpoints
FFD_DEFINITION= (BOX,\
 -0.6,-0.6,0.0,\
  0.6,-0.6,0.0,\
  0.6, 0.6,0.0,\
 -0.6, 0.6,0.0,\
 0.0,0.0,0.0,  0.0,0.0,0.0  0.0,0.0,0.0,  0.0,0.0,0.0 )
%
% FFD box degree: 2D case (x_degree, y_degree, 0)
FFD_DEGREE= (8, 1, 0)
%
% Surface grid continuity at the intersection with the faces of the FFD boxes.
% To keep a particular level of surface continuity, SU2 automatically freezes the right
% number of control point planes (NO_DERIVATIVE, 1ST_DERIVATIVE, 2ND_DERIVATIVE, USER_INPUT)
FFD_CONTINUITY= NO_DERIVATIVE
%
% ----------------------- DESIGN VARIABLE PARAMETERS --------------------------%
%
%DV_KIND= FFD_SETTING
% First 9 are upper, second 9 are lower DV's
DV_KIND= FFD_CONTROL_POINT_2D,FFD_CONTROL_POINT_2D,FFD_CONTROL_POINT_2D,FFD_CONTROL_POINT_2D,FFD_CONTROL_POINT_2D,FFD_CONTROL_POINT_2D,FFD_CONTROL_POINT_2D,FFD_CONTROL_POINT_2D,FFD_CONTROL_POINT_2D, FFD_CONTROL_POINT_2D,FFD_CONTROL_POINT_2D,FFD_CONTROL_POINT_2D,FFD_CONTROL_POINT_2D,FFD_CONTROL_POINT_2D,FFD_CONTROL_POINT_2D,FFD_CONTROL_POINT_2D,FFD_CONTROL_POINT_2D,FFD_CONTROL_POINT_2D
%
% Marker of the surface in which we are going apply the shape deformation
DV_MARKER= ( cylinder_fluid, cylinder_solid )
%
% Parameters of the shape deformation
% - FFD_SETTING ( 1.0 )
% - FFD_CONTROL_POINT_2D ( FFD_BoxTag, i_Ind, j_Ind, x_Disp, y_Disp )
%DV_PARAM= ( 1.0 )
DV_PARAM= \
( BOX, 0, 1, 0.0, 1.0);\
( BOX, 1, 1, 0.0, 1.0);\
( BOX, 2, 1, 0.0, 1.0);\
( BOX, 3, 1, 0.0, 1.0);\
( BOX, 4, 1, 0.0, 1.0);\
( BOX, 5, 1, 0.0, 1.0);\
( BOX, 6, 1, 0.0, 1.0);\
( BOX, 7, 1, 0.0, 1.0);\
( BOX, 8, 1, 0.0, 1.0);\
( BOX, 0, 0, 0.0, 1.0);\
( BOX, 1, 0, 0.0, 1.0);\
( BOX, 2, 0, 0.0, 1.0);\
( BOX, 3, 0, 0.0, 1.0);\
( BOX, 4, 0, 0.0, 1.0);\
( BOX, 5, 0, 0.0, 1.0);\
( BOX, 6, 0, 0.0, 1.0);\
( BOX, 7, 0, 0.0, 1.0);\
( BOX, 8, 0, 0.0, 1.0)
%
% Value of the shape deformation
DV_VALUE= 0.0,0.0,0.2,0.1,0.0,-0.2,0.0,0.0,0.0, 0.0,0.0,0.3,0.3,-0.2,0.0,0.0,0.2,0.0
%DV_VALUE= __FFD_PTS__
%
% ------------------------ GRID DEFORMATION PARAMETERS ------------------------%
%
DEFORM_LINEAR_SOLVER= FGMRES
DEFORM_LINEAR_SOLVER_PREC= ILU
DEFORM_LINEAR_SOLVER_ERROR= 1E-14
DEFORM_NONLINEAR_ITER= 1
DEFORM_LINEAR_SOLVER_ITER= 1000
%
DEFORM_CONSOLE_OUTPUT= YES
DEFORM_STIFFNESS_TYPE= WALL_DISTANCE
%
DEFINITION_DV= \
( 19, 1.0 | cylinder_fluid, cylinder_solid | BOX, 0, 1, 0.0, 1.0 ); \
( 19, 1.0 | cylinder_fluid, cylinder_solid | BOX, 1, 1, 0.0, 1.0 ); \
( 19, 1.0 | cylinder_fluid, cylinder_solid | BOX, 2, 1, 0.0, 1.0 ); \
( 19, 1.0 | cylinder_fluid, cylinder_solid | BOX, 3, 1, 0.0, 1.0 ); \
( 19, 1.0 | cylinder_fluid, cylinder_solid | BOX, 4, 1, 0.0, 1.0 ); \
( 19, 1.0 | cylinder_fluid, cylinder_solid | BOX, 5, 1, 0.0, 1.0 ); \
( 19, 1.0 | cylinder_fluid, cylinder_solid | BOX, 6, 1, 0.0, 1.0 ); \
( 19, 1.0 | cylinder_fluid, cylinder_solid | BOX, 7, 1, 0.0, 1.0 ); \
( 19, 1.0 | cylinder_fluid, cylinder_solid | BOX, 8, 1, 0.0, 1.0 ); \
( 19, 1.0 | cylinder_fluid, cylinder_solid | BOX, 0, 0, 0.0, 1.0 ); \
( 19, 1.0 | cylinder_fluid, cylinder_solid | BOX, 1, 0, 0.0, 1.0 ); \
( 19, 1.0 | cylinder_fluid, cylinder_solid | BOX, 2, 0, 0.0, 1.0 ); \
( 19, 1.0 | cylinder_fluid, cylinder_solid | BOX, 3, 0, 0.0, 1.0 ); \
( 19, 1.0 | cylinder_fluid, cylinder_solid | BOX, 4, 0, 0.0, 1.0 ); \
( 19, 1.0 | cylinder_fluid, cylinder_solid | BOX, 5, 0, 0.0, 1.0 ); \
( 19, 1.0 | cylinder_fluid, cylinder_solid | BOX, 6, 0, 0.0, 1.0 ); \
( 19, 1.0 | cylinder_fluid, cylinder_solid | BOX, 7, 0, 0.0, 1.0 ); \
( 19, 1.0 | cylinder_fluid, cylinder_solid | BOX, 8, 0, 0.0, 1.0 )

