%%%%%%%%%%%%%%%%%%%%%%%%%%%%%%%%%%%%%%%%%%%%%%%%%%%%%%%%%%%%%%%%%%%%%%%%%%%%%%%%%
%                                                                               %
% SU2 configuration file                                                        %
% Case description: 2D cylinder array with CHT couplings                        %
% Author: T. Kattmann                                                           %
% Institution: Robert Bosch GmbH                                                %
% Date: 2020.12.15                                                              %
% File Version 7.2.0 "Blackbird"                                                %
%                                                                               %
%%%%%%%%%%%%%%%%%%%%%%%%%%%%%%%%%%%%%%%%%%%%%%%%%%%%%%%%%%%%%%%%%%%%%%%%%%%%%%%%%
%
SOLVER= MULTIPHYSICS
%
CONFIG_LIST= (configFluid.cfg, configSolid.cfg)
%
MARKER_ZONE_INTERFACE= ( fluid_pin1_interface, solid_pin1_interface, fluid_pin2_interface, solid_pin2_interface, fluid_pin3_interface, solid_pin3_interface )
MARKER_CHT_INTERFACE=  ( fluid_pin1_interface, solid_pin1_interface, fluid_pin2_interface, solid_pin2_interface, fluid_pin3_interface, solid_pin3_interface )
%
CONV_RESIDUAL_MINVAL= -26
%
% Number of total iterations
OUTER_ITER= 4000
%__ADJOINT__OUTER_ITER= 22000
%
%CHT_ROBIN= NO
%
SCREEN_OUTPUT= ( OUTER_ITER, RMS_PRESSURE[0], RMS_TEMPERATURE[0], RMS_TEMPERATURE[1], STREAMWISE_MASSFLOW[0], STREAMWISE_DP[0], AVG_TEMPERATURE[1] )
%__ADJOINT__SCREEN_OUTPUT= (OUTER_ITER, BGS_ADJ_PRESSURE[0], BGS_ADJ_TEMPERATURE[0], BGS_ADJ_TEMPERATURE[1])
SCREEN_WRT_FREQ_OUTER= 100
%
HISTORY_OUTPUT= ( ITER, BGS_RES[0], BGS_RES[1], RMS_RES[0], RMS_RES[1], STREAMWISE_PERIODIC[0], FLOW_COEFF[0], HEAT[1], LINSOL[0], LINSOL[1], HEAT[0] )
%__ADJOINT__HISTORY_OUTPUT= ( ITER, BGS_RES[0], BGS_RES[1], RMS_RES[0], RMS_RES[1] )
OUTPUT_PRECISION= 16
%
OUTPUT_FILES= ( RESTART, PARAVIEW_MULTIBLOCK )
OUTPUT_WRT_FREQ= 100
VOLUME_OUTPUT= RESIDUAL
GRAD_OBJFUNC_FILENAME= of_grad.csv
%
MESH_FILENAME= deformed_2D-PinArray_FFD.su2
%MESH_FILENAME= 2D-PinArray_FFD.su2
