%%%%%%%%%%%%%%%%%%%%%%%%%%%%%%%%%%%%%%%%%%%%%%%%%%%%%%%%%%%%%%%%%%%%%%%%%%%%%%%%%
%                                                                               %
% SU2 configuration file                                                        %
% Case description: 2D cylinder array with CHT couplings                        %
% Author: T. Kattmann                                                           %
% Institution: Robert Bosch GmbH                                                %
% Date: 2020.12.15                                                              %
% File Version 7.2.0 "Blackbird"                                                %
%                                                                               %
%%%%%%%%%%%%%%%%%%%%%%%%%%%%%%%%%%%%%%%%%%%%%%%%%%%%%%%%%%%%%%%%%%%%%%%%%%%%%%%%%
%
SOLVER= MULTIPHYSICS
%
CONFIG_LIST= (configFluid.cfg, configSolid.cfg)
%
MARKER_ZONE_INTERFACE= ( fluid_pin1_interface, solid_pin1_interface, fluid_pin2_interface, solid_pin2_interface, fluid_pin3_interface, solid_pin3_interface )
%
MARKER_CHT_INTERFACE= ( fluid_pin1_interface, solid_pin1_interface, fluid_pin2_interface, solid_pin2_interface, fluid_pin3_interface, solid_pin3_interface )
%
CONV_RESIDUAL_MINVAL= -26
%
% Number of total iterations
%__DIRECT__OUTER_ITER= 4000
%__ADJOINT__OUTER_ITER= 22000
%
%CHT_ROBIN= NO
%
%__DIRECT__SCREEN_OUTPUT= ( OUTER_ITER, BGS_PRESSURE[0], BGS_TEMPERATURE[0], BGS_TEMPERATURE[1], STREAMWISE_MASSFLOW[0], STREAMWISE_DP[0], AVG_TEMPERATURE[1] )
%__ADJOINT__SCREEN_OUTPUT= (OUTER_ITER, BGS_ADJ_PRESSURE[0], BGS_ADJ_TEMPERATURE[0], BGS_ADJ_TEMPERATURE[1])
SCREEN_WRT_FREQ_OUTER= 100
%
%__DIRECT__HISTORY_OUTPUT= ( ITER, BGS_RES[0], BGS_RES[1], RMS_RES[0], RMS_RES[1], STREAMWISE_PERIODIC[0], FLOW_COEFF[0], HEAT[1], LINSOL[0], LINSOL[1], HEAT[0] )
%__ADJOINT__HISTORY_OUTPUT= ( ITER, BGS_RES[0], BGS_RES[1], RMS_RES[0], RMS_RES[1] )
OUTPUT_PRECISION= 16
%
OUTPUT_FILES= ( RESTART, PARAVIEW_MULTIBLOCK )
OUTPUT_WRT_FREQ= 10000
GRAD_OBJFUNC_FILENAME= of_grad.csv
%
MESH_FILENAME= 2D-PinArray_FFD.su2
MESH_OUT_FILENAME= deformed_2D-PinArray_FFD.su2
%
% -------------------- FREE-FORM DEFORMATION PARAMETERS -----------------------%
%
FFD_TOLERANCE= 1E-10
FFD_ITERATIONS= 500
%
% FFD box definition: 2D case (FFD_BoxTag, X1, Y1, 0.0, X2, Y2, 0.0, X3, Y3, 0.0, X4, Y4, 0.0,
%                              0.0, 0.0, 0.0, 0.0, 0.0, 0.0, 0.0, 0.0, 0.0, 0.0, 0.0, 0.0)
FFD_DEFINITION= (BOX,   0.0029772, 0.0,     0.0,   0.0081772, 0.0,     0.0,   0.0081772, 0.00322, 0.0,    0.0029772, 0.00322, 0.0,   0.0,0.0,0.0,   0.0,0.0,0.0   0.0,0.0,0.0,   0.0,0.0,0.0 ); \
           (FRONTBOX,  -0.0026,    0.00322, 0.0,   0.0026,    0.00322, 0.0,   0.0026,    0.0,     0.0,   -0.0026,    0.0,     0.0,   0.0,0.0,0.0,   0.0,0.0,0.0   0.0,0.0,0.0,   0.0,0.0,0.0 ); \
            (BACKBOX,   0.0085544, 0.00322, 0.0,   0.0137544, 0.00322, 0.0,   0.0137544, 0.0,     0.0,    0.0085544, 0.0,     0.0,   0.0,0.0,0.0,   0.0,0.0,0.0   0.0,0.0,0.0,   0.0,0.0,0.0 )
%
% FFD box degree: 2D case (x_degree, y_degree, 0)
FFD_DEGREE= (8, 8, 0); (8, 8, 0); (8, 8, 0)
%
% Surface grid continuity at the intersection with the faces of the FFD boxes.
% To keep a particular level of surface continuity, SU2 automatically freezes the right
% number of control point planes (NO_DERIVATIVE, 1ST_DERIVATIVE, 2ND_DERIVATIVE, USER_INPUT)
FFD_CONTINUITY= USER_INPUT
%
% BEZIER, BSPLINE_UNIFORM
%FFD_BLENDING= BEZIER
FFD_BLENDING= BSPLINE_UNIFORM
FFD_BSPLINE_ORDER= 4,3,2
%
% ----------------------- DESIGN VARIABLE PARAMETERS --------------------------%
%
DV_KIND= FFD_CONTROL_POINT_2D,FFD_CONTROL_POINT_2D,FFD_CONTROL_POINT_2D,FFD_CONTROL_POINT_2D,FFD_CONTROL_POINT_2D,FFD_CONTROL_POINT_2D,FFD_CONTROL_POINT_2D,FFD_CONTROL_POINT_2D,FFD_CONTROL_POINT_2D,   FFD_CONTROL_POINT_2D, FFD_CONTROL_POINT_2D, FFD_CONTROL_POINT_2D, \
         FFD_CONTROL_POINT_2D,FFD_CONTROL_POINT_2D,FFD_CONTROL_POINT_2D,FFD_CONTROL_POINT_2D,FFD_CONTROL_POINT_2D,FFD_CONTROL_POINT_2D,FFD_CONTROL_POINT_2D,FFD_CONTROL_POINT_2D,FFD_CONTROL_POINT_2D,   FFD_CONTROL_POINT_2D, FFD_CONTROL_POINT_2D, FFD_CONTROL_POINT_2D, \
         FFD_CONTROL_POINT_2D,FFD_CONTROL_POINT_2D,FFD_CONTROL_POINT_2D,FFD_CONTROL_POINT_2D,FFD_CONTROL_POINT_2D,FFD_CONTROL_POINT_2D,FFD_CONTROL_POINT_2D,FFD_CONTROL_POINT_2D,FFD_CONTROL_POINT_2D,   FFD_CONTROL_POINT_2D, FFD_CONTROL_POINT_2D,  FFD_CONTROL_POINT_2D 
%
% Marker of the surface in which we are going apply the shape deformation
MARKER_FAR= fluid_inlet, fluid_outlet, solid_pin1_inlet, solid_pin3_outlet
DV_MARKER= fluid_pin2_interface, fluid_pin1_interface, fluid_pin3_interface, solid_pin2_interface, solid_pin1_interface, solid_pin3_interface, fluid_inlet, fluid_outlet, solid_pin1_inlet, solid_pin3_outlet
%
% Parameters of the shape deformation
% - FFD_SETTING ( 1.0 )
% - FFD_CONTROL_POINT_2D ( FFD_BoxTag, i_Ind, j_Ind, x_Disp, y_Disp )
DV_PARAM= \
( BOX, 0, 5, 0.0, 1.0);\
( BOX, 1, 5, 0.0, 1.0);\
( BOX, 2, 5, 0.0, 1.0);\
( BOX, 3, 5, 0.0, 1.0);\
( BOX, 4, 5, 0.0, 1.0);\
( BOX, 5, 5, 0.0, 1.0);\
( BOX, 6, 5, 0.0, 1.0);\
( BOX, 7, 5, 0.0, 1.0);\
( BOX, 8, 5, 0.0, 1.0);\
( BOX, 4, 6, 0.0, 1.0);\
( BOX, 4, 7, 0.0, 1.0);\
( BOX, 4, 8, 0.0, 1.0);\
( FRONTBOX, 0, 5, 0.0, -1.0);\
( FRONTBOX, 1, 5, 0.0, -1.0);\
( FRONTBOX, 2, 5, 0.0, -1.0);\
( FRONTBOX, 3, 5, 0.0, -1.0);\
( FRONTBOX, 4, 5, 0.0, -1.0);\
( FRONTBOX, 5, 5, 0.0, -1.0);\
( FRONTBOX, 6, 5, 0.0, -1.0);\
( FRONTBOX, 7, 5, 0.0, -1.0);\
( FRONTBOX, 8, 5, 0.0, -1.0);\
( FRONTBOX, 4, 6, 0.0, -1.0);\
( FRONTBOX, 4, 7, 0.0, -1.0);\
( FRONTBOX, 4, 8, 0.0, -1.0);\
( BACKBOX, 0, 5, 0.0, -1.0);\
( BACKBOX, 1, 5, 0.0, -1.0);\
( BACKBOX, 2, 5, 0.0, -1.0);\
( BACKBOX, 3, 5, 0.0, -1.0);\
( BACKBOX, 4, 5, 0.0, -1.0);\
( BACKBOX, 5, 5, 0.0, -1.0);\
( BACKBOX, 6, 5, 0.0, -1.0);\
( BACKBOX, 7, 5, 0.0, -1.0);\
( BACKBOX, 8, 5, 0.0, -1.0);\
( BACKBOX, 4, 6, 0.0, -1.0);\
( BACKBOX, 4, 7, 0.0, -1.0);\
( BACKBOX, 4, 8, 0.0, -1.0)
%
% Value of the shape deformation
% Values of the other FFD box have to be negated in order to be symmetric
% The middle FFD point plus the two neighbors are set to zero in order to assure no movement of the interface
DV_VALUE=  5.0e-4, 5.0e-4, -7.0e-4,   0.0e-4, 3.0e-4, 2.0e-4,    4.0e-4, 5.0e-4, 1.0e-4,  0.0e-4, 0.0e-4, 0.0e-4, \
           5.0e-4, 5.0e-4, -7.0e-4,   0.0e-4, 3.0e-4, 2.0e-4,    4.0e-4, 5.0e-4, 1.0e-4,  0.0e-4, 0.0e-4, 0.0e-4, \
           5.0e-4, 5.0e-4, -7.0e-4,   0.0e-4, 3.0e-4, 2.0e-4,    4.0e-4, 5.0e-4, 1.0e-4,  0.0e-4, 0.0e-4, 0.0e-4   
%
% ------------------------ GRID DEFORMATION PARAMETERS ------------------------%
%
DEFORM_LINEAR_SOLVER= FGMRES
DEFORM_LINEAR_SOLVER_PREC= ILU
DEFORM_LINEAR_SOLVER_ERROR= 1E-14
%
DEFORM_NONLINEAR_ITER= 1
DEFORM_LINEAR_SOLVER_ITER= 1000
%
DEFORM_CONSOLE_OUTPUT= YES
DEFORM_STIFFNESS_TYPE= WALL_DISTANCE
%
% Deformation coefficient (linear elasticity limits from -1.0 to 0.5, a larger value is also possible)
DEFORM_COEFF = 0.1
